*Heading
** Job name: D-16 Model name: Model-1
** Generated by: Abaqus/CAE 6.14-1
*Preprint, echo=NO, model=NO, history=NO, contact=NO
**
** PARTS
**
*Part, name="Concrete Beam"
*Node
      1,        -92.5,        -42.5,         100.
      2,        -92.5,        157.5,         100.
      3,        -92.5,        157.5,           0.
      4,        -92.5,        -42.5,           0.
      5,         27.5,        157.5,         100.
      6,         27.5,        157.5,           0.
      7,         27.5,        -42.5,           0.
      8,         27.5,        -42.5,         100.
      9,        -92.5,        157.5,         650.
     10,        -92.5,        -42.5,         650.
     11,        -92.5,        -42.5,         750.
     12,        -92.5,        157.5,         750.
     13,         27.5,        -42.5,         650.
     14,         27.5,        -42.5,         750.
     15,         27.5,        157.5,         750.
     16,         27.5,        157.5,         650.
     17,        -92.5,        157.5,        1250.
     18,        -92.5,        -42.5,        1250.
     19,        -92.5,        -42.5,        1350.
     20,        -92.5,        157.5,        1350.
** ... 7834 like lines cut
*Element, type=C3D8R
  1,   94,  745, 3625,  705,    1,   33,  633,   58
  2,  745,  746, 3626, 3625,   33,   34,  634,  633
  3,  746,  747, 3627, 3626,   34,   35,  635,  634
  4,  747,  748, 3628, 3627,   35,   36,  636,  635
  5,  748,  749, 3629, 3628,   36,   37,  637,  636
  6,  749,  750, 3630, 3629,   37,   38,  638,  637
  7,  750,  751, 3631, 3630,   38,   39,  639,  638
  8,  751,  752, 3632, 3631,   39,   40,  640,  639
  9,  752,  753, 3633, 3632,   40,   41,  641,  640
 10,  753,  100,  725, 3633,   41,    2,   42,  641
 11,  705, 3625, 3634,  706,   58,  633,  642,   57
 12, 3625, 3626, 3635, 3634,  633,  634,  643,  642
 13, 3626, 3627, 3636, 3635,  634,  635,  644,  643
 14, 3627, 3628, 3637, 3636,  635,  636,  645,  644
 15, 3628, 3629, 3638, 3637,  636,  637,  646,  645
 16, 3629, 3630, 3639, 3638,  637,  638,  647,  646
 17, 3630, 3631, 3640, 3639,  638,  639,  648,  647
 18, 3631, 3632, 3641, 3640,  639,  640,  649,  648
 19, 3632, 3633, 3642, 3641,  640,  641,  650,  649
 20, 3633,  725,  726, 3642,  641,   42,   43,  650
** ... 6040 like lines cut
*Nset, nset=Set-4, generate
    1,  7854,     1
*Elset, elset=Set-4, generate
    1,  6060,     1
*Elset, elset=_Beam-Surf-1_S6, internal, generate
 2281,  2571,    10
*Surface, type=ELEMENT, name=Beam-Surf-1
_Beam-Surf-1_S6, S6
*Elset, elset=_Beam-Surf-2_S6, internal, generate
 301,  591,   10
*Surface, type=ELEMENT, name=Beam-Surf-2
_Beam-Surf-2_S6, S6
*Elset, elset=_Beam-Surf-3_S4, internal, generate
 4090,  4380,    10
*Surface, type=ELEMENT, name=Beam-Surf-3
_Beam-Surf-3_S4, S4
*Elset, elset=_Beam-Surf-4_S6, internal, generate
   1,  291,   10
*Surface, type=ELEMENT, name=Beam-Surf-4
_Beam-Surf-4_S6, S6
** Section: Concerete
*Solid Section, elset=Set-4, controls=EC-1, material=GEO1
,
*End Part
**  
*Part, name=Reinforcement-2
*Node
      1,           0.,           0.,        1960.
      2,           0.,         160.,        1960.
      3,          80.,         160.,        1960.
      4,          80.,         160.,        1860.
      5,          80.,         160.,        1760.
      6,          80.,         160.,        1660.
      7,          80.,         160.,        1560.
      8,          80.,         160.,        1460.
      9,          80.,         160.,        1360.
     10,          80.,         160.,        1260.
     11,          80.,         160.,         700.
     12,          80.,         160.,         600.
     13,          80.,         160.,         500.
     14,          80.,         160.,         400.
     15,          80.,         160.,         300.
     16,          80.,         160.,         200.
     17,          80.,         160.,         100.
     18,          80.,         160.,           0.
     19,          80.,           0.,           0.
     20,          80.,           0.,         100.
** ... 336 like lines cut
*Element, type=T3D2
1,  2, 65
2, 65, 66
3, 66, 67
4, 67,  1
5,  3, 68
6, 68,  2
 7,  3, 69
 8, 69, 70
 9, 70,  4
10,  4, 71
11, 71, 72
12, 72,  5
13,  5, 73
14, 73, 74
15, 74,  6
16,  6, 75
17, 75, 76
18, 76,  7
19,  7, 77
20, 77, 78
** ... 396 like lines cut
*Nset, nset=_PickedSet3_#4, internal
   1,  19,  20,  21,  22,  24,  26,  27,  29,  30,  32,  33,  35,  36,  38,  39
  41,  42,  44,  45,  47,  48,  50,  51,  53,  54,  56,  57,  59,  60,  63,  64
 113, 114, 116, 117, 269, 270, 278, 279, 280, 281, 282, 283, 284, 285, 286, 287
 288, 289, 290, 291, 292, 293, 294, 295, 296, 297, 298, 299, 300, 301, 302, 303
 304, 305, 306, 307, 308, 309, 310, 311, 312, 313, 314, 315, 316, 317, 318, 319
 320, 321, 322, 323, 324, 325, 326, 327, 328, 329, 330, 331, 332, 333, 334, 335
 336, 337, 338, 339, 340, 341, 342, 343, 344, 345, 346, 347, 348, 349, 353, 354
 355, 356
*Elset, elset=_PickedSet3_#4, internal
  67,  68,  69,  72,  73,  74, 296, 297, 298, 310, 311, 312, 313, 314, 315, 316
 317, 318, 319, 320, 321, 322, 323, 324, 325, 326, 327, 328, 329, 330, 331, 332
 333, 334, 335, 336, 337, 338, 339, 340, 341, 342, 343, 344, 345, 346, 347, 348
 349, 350, 351, 352, 353, 354, 355, 356, 357, 358, 359, 360, 361, 362, 363, 364
 365, 366, 367, 368, 369, 370, 371, 372, 373, 374, 375, 376, 377, 378, 379, 380
 381, 382, 383, 384, 385, 386, 387, 388, 389, 390, 391, 392, 393, 394, 395, 396
 397, 398, 399, 400, 401, 402, 403, 404, 405, 406, 411, 412, 413, 414, 415, 416
*Nset, nset=_PickedSet3_#6, internal
   1,   2,   3,   4,   5,   6,   7,   8,   9,  10,  11,  12,  13,  14,  15,  16
  17,  18,  19,  20,  21,  22,  23,  24,  25,  26,  27,  28,  29,  30,  31,  32
  33,  34,  35,  36,  37,  38,  39,  40,  41,  42,  43,  44,  45,  46,  47,  48
  49,  50,  51,  52,  53,  54,  55,  56,  57,  58,  59,  60,  61,  62,  63,  64
  65,  66,  67,  68, 110, 111, 112, 115, 118, 119, 120, 121, 122, 123, 124, 125
 128, 129, 130, 131, 132, 133, 134, 135, 138, 139, 140, 141, 142, 143, 144, 145
 148, 149, 150, 151, 152, 153, 154, 155, 158, 159, 160, 161, 162, 163, 164, 165
 168, 169, 170, 171, 172, 173, 174, 175, 178, 179, 180, 181, 182, 183, 184, 185
 188, 189, 190, 191, 192, 193, 194, 195, 209, 210, 211, 212, 213, 214, 215, 216
 219, 220, 221, 222, 223, 224, 225, 226, 229, 230, 231, 232, 233, 234, 235, 236
 239, 240, 241, 242, 243, 244, 245, 246, 249, 250, 251, 252, 253, 254, 255, 256
 257, 258, 259, 262, 265, 266, 267, 268, 271, 274, 275, 276, 277, 350, 351, 352
*Elset, elset=_PickedSet3_#6, internal
   1,   2,   3,   4,   5,   6,  63,  64,  65,  66,  70,  71,  75,  76,  77,  78
  79,  80,  81,  82,  83,  84,  85,  86,  90,  91,  92,  93,  94,  95,  96,  97
  98,  99, 100, 101, 105, 106, 107, 108, 109, 110, 111, 112, 113, 114, 115, 116
 120, 121, 122, 123, 124, 125, 126, 127, 128, 129, 130, 131, 135, 136, 137, 138
 139, 140, 141, 142, 143, 144, 145, 146, 150, 151, 152, 153, 154, 155, 156, 157
 158, 159, 160, 161, 165, 166, 167, 168, 169, 170, 171, 172, 173, 174, 175, 176
 180, 181, 182, 183, 184, 185, 186, 187, 188, 189, 190, 191, 206, 207, 208, 209
 210, 211, 212, 213, 214, 215, 216, 217, 221, 222, 223, 224, 225, 226, 227, 228
 229, 230, 231, 232, 236, 237, 238, 239, 240, 241, 242, 243, 244, 245, 246, 247
 251, 252, 253, 254, 255, 256, 257, 258, 259, 260, 261, 262, 266, 267, 268, 269
 270, 271, 272, 273, 274, 275, 276, 277, 278, 279, 280, 281, 285, 286, 290, 291
 292, 293, 294, 295, 299, 300, 304, 305, 306, 307, 308, 309, 407, 408, 409, 410
*Nset, nset=_PickedSet3_#5, internal
   2,   3,   4,   5,   6,   7,   8,   9,  10,  11,  12,  13,  14,  15,  16,  17
  18,  23,  25,  28,  31,  34,  37,  40,  43,  46,  49,  52,  55,  58,  61,  62
  69,  70,  71,  72,  73,  74,  75,  76,  77,  78,  79,  80,  81,  82,  83,  84
  85,  86,  87,  88,  89,  90,  91,  92,  93,  94,  95,  96,  97,  98,  99, 100
 101, 102, 103, 104, 105, 106, 107, 108, 109, 126, 127, 136, 137, 146, 147, 156
 157, 166, 167, 176, 177, 186, 187, 196, 197, 198, 199, 200, 201, 202, 203, 204
 205, 206, 207, 208, 217, 218, 227, 228, 237, 238, 247, 248, 260, 261, 263, 264
 272, 273
*Elset, elset=_PickedSet3_#5, internal
   7,   8,   9,  10,  11,  12,  13,  14,  15,  16,  17,  18,  19,  20,  21,  22
  23,  24,  25,  26,  27,  28,  29,  30,  31,  32,  33,  34,  35,  36,  37,  38
  39,  40,  41,  42,  43,  44,  45,  46,  47,  48,  49,  50,  51,  52,  53,  54
  55,  56,  57,  58,  59,  60,  61,  62,  87,  88,  89, 102, 103, 104, 117, 118
 119, 132, 133, 134, 147, 148, 149, 162, 163, 164, 177, 178, 179, 192, 193, 194
 195, 196, 197, 198, 199, 200, 201, 202, 203, 204, 205, 218, 219, 220, 233, 234
 235, 248, 249, 250, 263, 264, 265, 282, 283, 284, 287, 288, 289, 301, 302, 303
** Section: Stirrup
*Solid Section, elset=_PickedSet3_#6, material=Steel
28.2743,
** Section: Reinforcement Ten
*Solid Section, elset=_PickedSet3_#5, material=Steel
113.097,
** Section: Rebar Com
*Solid Section, elset=_PickedSet3_#4, material=BFRP
201.1,
*End Part
**  
*Part, name="Support Plate"
*Node
      1,         -50.,         -15.,         100.
      2,         -50.,           5.,         100.
      3,         -50.,         -15.,          80.
      4,         -50.,           5.,          80.
      5,         -50.,         -15.,          60.
      6,         -50.,           5.,          60.
      7,         -50.,         -15.,          40.
      8,         -50.,           5.,          40.
      9,         -50.,         -15.,          20.
     10,         -50.,           5.,          20.
     11,         -50.,         -15.,           0.
     12,         -50.,           5.,           0.
     13,         -30.,         -15.,         100.
     14,         -30.,           5.,         100.
     15,         -30.,         -15.,          80.
     16,         -30.,           5.,          80.
     17,         -30.,         -15.,          60.
     18,         -30.,           5.,          60.
     19,         -30.,         -15.,          40.
     20,         -30.,           5.,          40.
** ... 64 like lines cut
*Element, type=C3D8R
 1, 13, 14, 16, 15,  1,  2,  4,  3
 2, 15, 16, 18, 17,  3,  4,  6,  5
 3, 17, 18, 20, 19,  5,  6,  8,  7
 4, 19, 20, 22, 21,  7,  8, 10,  9
 5, 21, 22, 24, 23,  9, 10, 12, 11
 6, 25, 26, 28, 27, 13, 14, 16, 15
 7, 27, 28, 30, 29, 15, 16, 18, 17
 8, 29, 30, 32, 31, 17, 18, 20, 19
 9, 31, 32, 34, 33, 19, 20, 22, 21
10, 33, 34, 36, 35, 21, 22, 24, 23
11, 37, 38, 40, 39, 25, 26, 28, 27
12, 39, 40, 42, 41, 27, 28, 30, 29
13, 41, 42, 44, 43, 29, 30, 32, 31
14, 43, 44, 46, 45, 31, 32, 34, 33
15, 45, 46, 48, 47, 33, 34, 36, 35
16, 49, 50, 52, 51, 37, 38, 40, 39
17, 51, 52, 54, 53, 39, 40, 42, 41
18, 53, 54, 56, 55, 41, 42, 44, 43
19, 55, 56, 58, 57, 43, 44, 46, 45
20, 57, 58, 60, 59, 45, 46, 48, 47
** ... 10 like lines cut
*Node
     85,          10.,         -15.,          50.
*Nset, nset="Support Plate-RefPt_", internal
85, 
*Nset, nset=_PickedSet6, internal, generate
  1,  84,   1
*Elset, elset=_PickedSet6, internal, generate
  1,  30,   1
*Elset, elset=_Plate-Surf-1_S4, internal, generate
  1,  30,   1
*Surface, type=ELEMENT, name=Plate-Surf-1
_Plate-Surf-1_S4, S4
** Section: Support plate
*Solid Section, elset=_PickedSet6, material=Steel
,
*End Part
**  
**
** ASSEMBLY
**
*Assembly, name=Assembly
**  
*Instance, name="Concrete Beam-1", part="Concrete Beam"
        92.5,         42.5,           0.
*End Instance
**  
*Instance, name="Support Plate-1", part="Support Plate"
         50.,          -5.,           0.
*End Instance
**  
*Instance, name="Support Plate-1-lin-2-1", part="Support Plate"
         50.,          -5.,        1900.
*End Instance
**  
*Instance, name="Support Plate-1-lin-2-1-1", part="Support Plate"
         70.,         205.,         650.
         70.,         205.,         650.,          70.,         205.,         651.,         180.
*End Instance
**  
*Instance, name="Support Plate-1-lin-2-1-1-lin-2-1", part="Support Plate"
         70.,         205.,        1250.
         70.,         205.,        1250.,          70.,         205.,        1251.,         180.
*End Instance
**  
*Instance, name=Reinforcement-2-1, part=Reinforcement-2
         20.,          20.,          20.
*End Instance
**  
*Nset, nset=MIDD, instance="Concrete Beam-1"
 392,
*Nset, nset=Rebar-strain, instance=Reinforcement-2-1
 117, 327, 354
*Nset, nset=Set-8, instance="Support Plate-1"
 85,
*Nset, nset=Set-9, instance="Support Plate-1-lin-2-1"
 85,
*Nset, nset=Set-10, instance="Support Plate-1-lin-2-1-1"
 85,
*Nset, nset=Set-10, instance="Support Plate-1-lin-2-1-1-lin-2-1"
 85,
*Nset, nset=Set-RP, instance="Support Plate-1"
 85,
*Nset, nset=Set-RP, instance="Support Plate-1-lin-2-1"
 85,
*Nset, nset=Set-RP, instance="Support Plate-1-lin-2-1-1-lin-2-1"
 85,
*Nset, nset=Set-RP, instance="Support Plate-1-lin-2-1-1"
 85,
*Nset, nset=m_Set-13, instance=Reinforcement-2-1, generate
   1,  356,    1
*Elset, elset=m_Set-13, instance=Reinforcement-2-1, generate
   1,  416,    1
*Nset, nset=_PickedSet73, internal, instance="Support Plate-1-lin-2-1-1"
 85,
*Nset, nset=_PickedSet75, internal, instance="Support Plate-1-lin-2-1-1-lin-2-1"
 85,
*Nset, nset=_PickedSet77, internal, instance="Support Plate-1"
 85,
*Nset, nset=_PickedSet79, internal, instance="Support Plate-1-lin-2-1"
 85,
*Elset, elset=__PickedSurf72_S6, internal, instance="Support Plate-1-lin-2-1-1", generate
  1,  30,   1
*Surface, type=ELEMENT, name=_PickedSurf72, internal
__PickedSurf72_S6, S6
*Elset, elset=__PickedSurf74_S6, internal, instance="Support Plate-1-lin-2-1-1-lin-2-1", generate
  1,  30,   1
*Surface, type=ELEMENT, name=_PickedSurf74, internal
__PickedSurf74_S6, S6
*Elset, elset=__PickedSurf76_S6, internal, instance="Support Plate-1", generate
  1,  30,   1
*Surface, type=ELEMENT, name=_PickedSurf76, internal
__PickedSurf76_S6, S6
*Elset, elset=__PickedSurf78_S6, internal, instance="Support Plate-1-lin-2-1", generate
  1,  30,   1
*Surface, type=ELEMENT, name=_PickedSurf78, internal
__PickedSurf78_S6, S6
** Constraint: Constraint-1
*Tie, name=Constraint-1, adjust=yes
"Concrete Beam-1".Beam-Surf-1, "Support Plate-1-lin-2-1-1-lin-2-1".Plate-Surf-1
** Constraint: Constraint-2
*Tie, name=Constraint-2, adjust=yes
"Concrete Beam-1".Beam-Surf-2, "Support Plate-1-lin-2-1-1".Plate-Surf-1
** Constraint: Constraint-3
*Tie, name=Constraint-3, adjust=yes
"Concrete Beam-1".Beam-Surf-3, "Support Plate-1-lin-2-1".Plate-Surf-1
** Constraint: Constraint-4
*Tie, name=Constraint-4, adjust=yes
"Concrete Beam-1".Beam-Surf-4, "Support Plate-1".Plate-Surf-1
** Constraint: Constraint-5
*Coupling, constraint name=Constraint-5, ref node=_PickedSet73, surface=_PickedSurf72
*Kinematic
** Constraint: Constraint-6
*Coupling, constraint name=Constraint-6, ref node=_PickedSet75, surface=_PickedSurf74
*Kinematic
** Constraint: Constraint-7
*Coupling, constraint name=Constraint-7, ref node=_PickedSet77, surface=_PickedSurf76
*Kinematic
** Constraint: Constraint-8
*Coupling, constraint name=Constraint-8, ref node=_PickedSet79, surface=_PickedSurf78
*Kinematic
** Constraint: Constraint-10
*Embedded Element
m_Set-13
*End Assembly
** 
** ELEMENT CONTROLS
** 
*Section Controls, name=EC-1, hourglass=ENHANCED
1., 1., 1.
** 
** MATERIALS
** 
*Material, name=BFRP
*Density
 2.67e-09,
*Elastic
50000., 0.22
*Plastic
700.,    0.
700., 1e-06
*Material, name=Concrete
*Density
 2.67e-09,
*Elastic
32100., 0.22
*Concrete Damaged Plasticity
38.,     0.1,    1.16, 0.66667,   1e-05
*Concrete Compression Hardening
 15.7978,          0.
 20.4303, 2.43932e-05
 24.4499,  6.7849e-05
 27.7252, 0.000134465
 30.1907, 0.000226279
 31.8515, 0.000343135
 32.7719, 0.000483026
 33.0557, 0.000642721
 31.4542,   0.0010296
 26.3332,   0.0016944
 21.3983,  0.00235315
 18.7173,   0.0027732
 16.5058,  0.00317852
 13.8992,  0.00376414
 11.9277,  0.00432972
 10.8718,  0.00469858
  9.9745,  0.00506239
  8.8602,  0.00560068
 7.95823,  0.00613209
 7.44803,  0.00648339
** ... 24 like lines cut
*Concrete Tension Stiffening
  4.52934,          0.
  3.51551, 9.35105e-05
  1.92405, 0.000189532
  1.26253,  0.00025658
  1.02193, 0.000295035
 0.858508, 0.000331084
 0.694178, 0.000382639
 0.584813, 0.000432479
 0.530326, 0.000465131
 0.485875, 0.000497469
 0.432693, 0.000545555
 0.391019, 0.000593279
 0.367898, 0.000624949
 0.347678, 0.000656528
 0.321681, 0.000703759
*Concrete Compression Damage
        0.,          0.
 0.0113673, 2.43932e-05
 0.0260279,  6.7849e-05
 0.0446207, 0.000134465
 0.0673179, 0.000226279
 0.0939925, 0.000343135
  0.124295, 0.000483026
  0.157711, 0.000642721
  0.239671,   0.0010296
  0.382578,   0.0016944
  0.514327,  0.00235315
  0.587936,   0.0027732
   0.64967,  0.00317852
  0.722835,  0.00376414
  0.777563,  0.00432972
  0.806272,  0.00469858
   0.83015,  0.00506239
  0.858902,  0.00560068
  0.881239,  0.00613209
  0.893422,  0.00648339
** ... 24 like lines cut
*Concrete Tension Damage
       0.,          0.
 0.434535, 9.35105e-05
  0.73998, 0.000189532
 0.854466,  0.00025658
 0.892941, 0.000295035
 0.917637, 0.000331084
 0.940914, 0.000382639
 0.955287, 0.000432479
 0.962033, 0.000465131
 0.967298, 0.000497469
  0.97328, 0.000545555
 0.977695, 0.000593279
  0.98003, 0.000624949
 0.981999, 0.000656528
 0.984425, 0.000703759
*Material, name=GEO1
*Density
 2.4e-09,
*Elastic
32100., 0.22
*Concrete Damaged Plasticity
42.,    0.1,   1.16, 0.6667,  1e-05
*Concrete Compression Hardening
  18.645,          0.
  22.567, 7.78182e-05
 25.8646, 0.000175091
 28.5376, 0.000291818
 30.5862,    0.000428
 32.0103, 0.000583636
 32.8098, 0.000758727
 32.8753, 0.000956688
 32.3076,  0.00117437
   31.74,  0.00139206
 31.1723,  0.00160974
 30.6046,  0.00182743
 30.0369,  0.00204511
 29.4692,   0.0022628
 28.9015,  0.00248048
   28.05,  0.00280701
*Concrete Tension Stiffening
  3.18632,          0.
  4.94711, 3.51467e-05
  2.89868, 0.000148961
  1.50411, 0.000262405
 0.986714, 0.000348523
*Concrete Compression Damage
        0.,          0.
   0.03214, 7.78182e-05
 0.0612008, 0.000175091
  0.089646, 0.000291818
  0.118752,    0.000428
  0.149357, 0.000583636
  0.182134, 0.000758727
  0.218895, 0.000956688
  0.259285,  0.00117437
   0.29694,  0.00139206
  0.332129,  0.00160974
  0.365086,  0.00182743
  0.396017,  0.00204511
  0.425103,   0.0022628
  0.452504,  0.00248048
  0.490755,  0.00280701
*Concrete Tension Damage
       0.,          0.
 0.022297, 3.51467e-05
 0.141601, 0.000148961
 0.358979, 0.000262405
 0.531358, 0.000348523
*Material, name="Geopolymer Concerete"
*Density
 2.4e-09,
*Elastic
32100., 0.22
*Concrete Damaged Plasticity
38.,     0.1,    1.16, 0.66667,   1e-05
*Concrete Compression Hardening
  18.645,          0.
 20.6841, 3.64773e-05
 24.2939, 0.000124023
 27.2792, 0.000231023
 30.5862,    0.000428
 32.0103, 0.000583636
 32.8098, 0.000758727
 32.9755, 0.000853568
 32.5915,  0.00106553
 32.0238,  0.00128322
 31.1723,  0.00160974
 30.6046,  0.00182743
 30.0369,  0.00204511
 29.1854,  0.00237164
 28.6177,  0.00258932
   28.05,  0.00280701
*Concrete Tension Stiffening
  3.18632,          0.
  4.94711, 3.51467e-05
  2.89868, 0.000148961
  1.50411, 0.000262405
 0.986714, 0.000348523
*Concrete Compression Damage
        0.,          0.
 0.0166993, 3.64773e-05
 0.0468585, 0.000124023
 0.0754052, 0.000231023
  0.118752,    0.000428
  0.149357, 0.000583636
  0.182134, 0.000758727
  0.199534, 0.000853568
   0.23945,  0.00106553
  0.278437,  0.00128322
  0.332129,  0.00160974
  0.365086,  0.00182743
  0.396017,  0.00204511
  0.439005,  0.00237164
  0.465618,  0.00258932
  0.490755,  0.00280701
*Concrete Tension Damage
       0.,          0.
 0.022297, 3.51467e-05
 0.141601, 0.000148961
 0.358979, 0.000262405
 0.531358, 0.000348523
** ConcreteData
** Calculate By: PolarisCDP plugins
** Source: http://xcbjx.taobao.com
*Material, name="OPC Concrete Plugin"
*Density
 2.45e-09,
*Elastic
36500., 0.2
*Concrete Damaged Plasticity
38.,     0.1,    1.16, 0.66667,   1e-05
*Concrete Compression Hardening
   16.66,         0.
 18.7355,   4.61e-06
 20.8431,  1.196e-05
  22.966,   2.25e-05
 25.0861,  3.674e-05
 27.1834,  5.521e-05
  29.282,  7.908e-05
 31.3891, 0.00010995
 33.4922, 0.00014996
 35.5861, 0.00020288
 37.6641, 0.00027613
 39.7535, 0.00039246
    41.5, 0.00069898
 39.4247, 0.00107224
 37.3417, 0.00129023
 35.2615, 0.00149005
 33.1765,  0.0016864
 31.1011, 0.00188428
  29.021, 0.00208953
  26.943, 0.00230557
** ... 10 like lines cut
*Concrete Tension Stiffening
 2.34493,         0.
 2.49187,    1.9e-06
 2.64005,   4.46e-06
 2.78668,   8.34e-06
    2.93,  2.067e-05
 2.78159,  3.705e-05
 2.63351,  4.854e-05
  2.4851,  5.958e-05
 2.33811,  7.057e-05
 2.19125,  8.192e-05
 2.04454,  9.383e-05
 1.89632, 0.00010672
 1.74966, 0.00012061
 1.60315, 0.00013601
 1.45634,  0.0001535
 1.30921, 0.00017391
 1.16239, 0.00019838
 1.01534, 0.00022901
 0.86878, 0.00026914
 0.72213, 0.00032566
 0.57551, 0.00041319
 0.42894, 0.00056994
*Material, name=Steel
*Density
 7.8e-09,
*Elastic
200000., 0.3
*Plastic
410.,0.
*Material, name=guozhang
*Density
 2.4e-09,
*Elastic
32100., 0.22
*Concrete Damaged Plasticity
38.,     0.1,    1.16, 0.66667,   1e-05
*Concrete Compression Hardening
 21.6506,          0.
 25.7831, 7.11023e-05
 28.9944, 0.000170862
 31.2798, 0.000299425
 32.6347, 0.000456936
 33.0536, 0.000643569
 32.3656, 0.000864643
 30.8016,  0.00111297
 28.8032,  0.00137478
 26.6738,  0.00164064
 24.5913,    0.001905
 22.6455,  0.00216505
 20.8724,  0.00241969
 19.2785,  0.00266871
 17.8552,  0.00291237
 16.5876,  0.00315114
*Concrete Tension Stiffening
     4.99,          0.
  4.39268,  3.3142e-05
  3.30691,  8.6963e-05
  2.50715, 0.000131874
   1.9723, 0.000168531
  1.60849,  0.00019986
  1.35149, 0.000227861
  1.16295, 0.000253729
  1.01994, 0.000278178
 0.908358, 0.000301648
 0.819179, 0.000324419
 0.746444, 0.000346678
*Concrete Compression Damage
        0.,          0.
 0.0258697, 7.11023e-05
 0.0537014, 0.000170862
 0.0844023, 0.000299425
  0.118814, 0.000456936
  0.157895, 0.000643569
  0.204622, 0.000864643
  0.258141,  0.00111297
  0.314901,  0.00137478
  0.371985,  0.00164064
  0.427262,    0.001905
  0.479354,  0.00216505
  0.527496,  0.00241969
  0.571382,  0.00266871
   0.61101,  0.00291237
   0.64657,  0.00315114
*Concrete Tension Damage
        0.,          0.
 0.0236462,  3.3142e-05
 0.0778434,  8.6963e-05
  0.144453, 0.000131874
   0.21525, 0.000168531
  0.285129,  0.00019986
  0.351158, 0.000227861
  0.411886, 0.000253729
  0.466807, 0.000278178
  0.515968, 0.000301648
  0.559715, 0.000324419
  0.598531, 0.000346678
** ConcreteData
** Calculate By: PolarisCDP plugins
** Source: http://xcbjx.taobao.com
*Material, name=guozhang2
*Density
 2.49e-09,
*Elastic
32100., 0.22
*Concrete Damaged Plasticity
38.,     0.1,    1.16, 0.66667,   1e-05
*Concrete Compression Hardening
 13.2256,         0.
 14.9192,  5.944e-05
 16.5842, 0.00012307
 18.2575, 0.00019304
 19.9248,  0.0002698
 21.6093, 0.00035593
 23.2861, 0.00045219
 24.9612, 0.00056171
 26.6247, 0.00068808
 28.2982, 0.00084055
  29.964, 0.00103285
 31.6266, 0.00130776
     33., 0.00193487
 31.3484, 0.00265623
 29.6883, 0.00305444
 28.0306, 0.00341629
  26.374, 0.00377149
 24.7215, 0.00413317
  23.056, 0.00451506
 21.3923, 0.00492329
** ... 7 like lines cut
*Concrete Tension Stiffening
 3.99359,         0.
 4.24383,   1.77e-05
 4.49619,  3.834e-05
 4.74592,  6.456e-05
    4.99, 0.00012696
 4.73805, 0.00016231
 4.48523, 0.00018618
 4.23326, 0.00020853
 3.97733, 0.00023101
 3.71952, 0.00025404
  3.4674, 0.00027739
 3.21164, 0.00030236
 2.95951, 0.00032871
 2.70547, 0.00035763
  2.4533, 0.00038948
 2.20355, 0.00042526
 1.95307, 0.00046707
 1.70317, 0.00051735
 1.45178, 0.00058118
 1.20151, 0.00066648
 0.95172, 0.00079126
 0.70189, 0.00100155
*Concrete Compression Damage
        0.,         0.
  0.024269,  5.944e-05
 0.0678079, 0.00012307
   0.11432, 0.00019304
   0.15878,  0.0002698
   0.20078, 0.00035593
   0.23987, 0.00045219
  0.276844, 0.00056171
  0.312355, 0.00068808
  0.348003, 0.00084055
  0.385256, 0.00103285
  0.428731, 0.00130776
   0.50422, 0.00193487
  0.568452, 0.00265623
  0.598727, 0.00305444
  0.624352, 0.00341629
   0.64798, 0.00377149
  0.670574, 0.00413317
  0.692875, 0.00451506
  0.714997, 0.00492329
** ... 7 like lines cut
*Concrete Tension Damage
        0.,         0.
 0.0200886,   1.77e-05
 0.0643659,  3.834e-05
  0.122956,  6.456e-05
  0.237652, 0.00012696
  0.280171, 0.00016231
  0.305832, 0.00018618
  0.329724, 0.00020853
   0.35393, 0.00023101
  0.378979, 0.00025404
  0.404563, 0.00027739
  0.431966, 0.00030236
  0.460727, 0.00032871
  0.491785, 0.00035763
  0.525026, 0.00038948
  0.560701, 0.00042526
  0.599667, 0.00046707
  0.642223, 0.00051735
  0.689306, 0.00058118
  0.741026, 0.00066648
  0.797939, 0.00079126
  0.860031, 0.00100155
** 
** BOUNDARY CONDITIONS
** 
** Name: BC-fix1 Type: Displacement/Rotation
*Boundary
Set-8, 1, 1
Set-8, 2, 2
Set-8, 3, 3
Set-8, 5, 5
Set-8, 6, 6
** Name: BC-fix2 Type: Displacement/Rotation
*Boundary
Set-9, 1, 1
Set-9, 2, 2
Set-9, 5, 5
Set-9, 6, 6
** ----------------------------------------------------------------
** 
** STEP: Step-1
** 
*Step, name=Step-1, nlgeom=YES, inc=10000, unsymm=YES
*Static
0.01, 1., 1e-08, 1.
** 
** BOUNDARY CONDITIONS
** 
** Name: BC-load Type: Displacement/Rotation
*Boundary
Set-10, 1, 1
Set-10, 2, 2, -55.
Set-10, 5, 5
Set-10, 6, 6
** 
** CONTROLS
** 
*Controls, reset
*Controls, analysis=discontinuous
*Controls, parameters=time incrementation
, , , , , , , 15, , , 
** 
** OUTPUT REQUESTS
** 
*Restart, write, frequency=0
** 
** FIELD OUTPUT: F-Output-1
** 
*Output, field
*Node Output
U, 
*Element Output, directions=YES
DAMAGEC, DAMAGET, E, LE, NE, PE, PEEQ, PEMAG, S, SDEG
** 
** HISTORY OUTPUT: Mid displacement
** 
*Output, history
*Node Output, nset=MIDD
U2, 
** 
** HISTORY OUTPUT: Reaction
** 
*Node Output, nset=Set-RP
RF2, 
** 
** HISTORY OUTPUT: H-Output-1
** 
*Output, history, variable=PRESELECT
*End Step
